<?xml version='1.0' encoding='UTF-8'?>
<configuration xmlns:xsi="http://www.w3.org/2001/XMLSchema-instance" xsi:noNamespaceSchemaLocation="http://sumo.dlr.de/xsd/sumoConfiguration.xsd">
  <input>
    <net-file value="multiagent_figure_eight_20201112-2252381605221558.23783.net.xml"/>
    <route-files value="multiagent_figure_eight_20201112-2252381605221558.23783.rou.xml"/>
    <additional-files value="multiagent_figure_eight_20201112-2252381605221558.23783.add.xml"/>
    <gui-settings-file value="multiagent_figure_eight_20201112-2252381605221558.23783.gui.cfg"/>
  </input>
  <time>
    <begin value="0"/>
  </time>
</configuration>
