<?xml version='1.0' encoding='UTF-8'?>
<edges xmlns:xsi="http://www.w3.org/2001/XMLSchema-instance" xsi:noNamespaceSchemaLocation="http://sumo.dlr.de/xsd/edges_file.xsd">
  <edge id="bottom" type="edgeType" priority="78" from="bottom" to="center" length="30.0"/>
  <edge id="top" type="edgeType" priority="78" from="center" to="top" length="30.0"/>
  <edge id="right" type="edgeType" priority="46" from="right" to="center" length="30.0"/>
  <edge id="left" type="edgeType" priority="46" from="center" to="left" length="30.0"/>
  <edge id="upper_ring" type="edgeType" from="top" to="right" length="141.3716694115407" shape="0.00,30.00 0.22,33.62 0.87,37.18 1.95,40.64 3.44,43.94 5.31,47.04 7.54,49.89 10.11,52.46 12.96,54.69 16.06,56.56 19.36,58.05 22.82,59.13 26.38,59.78 30.00,60.00 33.62,59.78 37.18,59.13 40.64,58.05 43.94,56.56 47.04,54.69 49.89,52.46 52.46,49.89 54.69,47.04 56.56,43.94 58.05,40.64 59.13,37.18 59.78,33.62 60.00,30.00 59.78,26.38 59.13,22.82 58.05,19.36 56.56,16.06 54.69,12.96 52.46,10.11 49.89,7.54 47.04,5.31 43.94,3.44 40.64,1.95 37.18,0.87 33.62,0.22 30.00,0.00"/>
  <edge id="lower_ring" type="edgeType" from="left" to="bottom" length="141.3716694115407" shape="-30.00,0.00 -33.62,-0.22 -37.18,-0.87 -40.64,-1.95 -43.94,-3.44 -47.04,-5.31 -49.89,-7.54 -52.46,-10.11 -54.69,-12.96 -56.56,-16.06 -58.05,-19.36 -59.13,-22.82 -59.78,-26.38 -60.00,-30.00 -59.78,-33.62 -59.13,-37.18 -58.05,-40.64 -56.56,-43.94 -54.69,-47.04 -52.46,-49.89 -49.89,-52.46 -47.04,-54.69 -43.94,-56.56 -40.64,-58.05 -37.18,-59.13 -33.62,-59.78 -30.00,-60.00 -26.38,-59.78 -22.82,-59.13 -19.36,-58.05 -16.06,-56.56 -12.96,-54.69 -10.11,-52.46 -7.54,-49.89 -5.31,-47.04 -3.44,-43.94 -1.95,-40.64 -0.87,-37.18 -0.22,-33.62 0.00,-30.00"/>
</edges>
