<?xml version='1.0' encoding='UTF-8'?>
<configuration xmlns:xsi="http://www.w3.org/2001/XMLSchema-instance" xsi:noNamespaceSchemaLocation="http://sumo.dlr.de/xsd/netconvertConfiguration.xsd">
  <input>
    <node-files value="multiagent_figure_eight_20201113-0110081605229808.079103.nod.xml"/>
    <edge-files value="multiagent_figure_eight_20201113-0110081605229808.079103.edg.xml"/>
    <type-files value="multiagent_figure_eight_20201113-0110081605229808.079103.typ.xml"/>
    <connection-files value="multiagent_figure_eight_20201113-0110081605229808.079103.con.xml"/>
  </input>
  <output>
    <output-file value="multiagent_figure_eight_20201113-0110081605229808.079103.net.xml"/>
  </output>
  <processing>
    <no-internal-links value="false"/>
    <no-turnarounds value="true"/>
  </processing>
</configuration>
